  1CT1 4  TOTAL HISTORIC CU OF SEEPAGE
  1CT2     UNION ISLAND  (EAST)                                1    1   7        
  1C   1922   1060.   1062.   1077.    410.    121.    723.    804.   1023.   1065.   1065.   1065.   1065.
  1C   1923   1025.   1066.    512.    326.    736.   1065.    490.   1061.   1061.   1065.   1065.   1008.
  1C   1924   1052.   1050.   1049.   1059.    994.   1015.   1044.   1069.   1082.   1082.   1082.   1082.
  1C   1925   1073.   1060.    686.    617.    228.    970.    487.   1010.   1060.   1065.   1065.   1065.
  1C   1926   1048.   1017.    984.    985.    611.   1065.    539.   1060.   1065.   1065.   1065.   1065.
  1C   1927   1043.    986.   1017.    640.    303.    503.    563.   1063.   1054.   1065.   1065.   1065.
  1C   1928   1063.    986.   1046.    758.    781.    506.    845.   1051.   1065.   1065.   1065.   1065.
  1C   1929   1081.   1011.   1025.    717.   1021.   1018.   1057.   1082.   1084.   1082.   1082.   1082.
  1C   1930   1062.   1065.   1069.    882.    557.    570.    775.   1047.   1065.   1065.   1056.   1055.
  1C   1931   1031.   1049.   1068.   1041.    950.   1038.   1068.   1059.   1075.   1082.   1082.   1082.
  1C   1932   1060.   1063.    659.    498.    103.   1031.   1048.   1018.   1065.   1065.   1065.   1065.
  1C   1933   1082.   1071.   1077.    759.   1021.    944.   1082.   1043.   1075.   1082.   1082.   1082.
  1C   1934   1041.   1081.   1018.   1086.    587.   1082.   1077.   1035.   1073.   1082.   1082.   1051.
  1C   1935   1043.   1054.    845.    506.    678.    294.    379.   1065.   1065.   1065.   1065.   1060.
  1C   1936   1007.   1033.   1064.    673.    340.    762.    872.   1022.   1044.   1065.   1065.   1061.
  1C   1937   1030.   1064.   1074.    589.    295.     58.    792.   1065.   1064.   1065.   1065.   1065.
  1C   1938   1046.   1068.    579.    333.     67.     54.    822.   1055.   1065.   1065.   1065.   1060.
  1C   1939   1020.   1067.   1098.   1044.   1029.    908.   1064.   1071.   1082.   1082.   1082.   1073.
  1C   1940   1037.   1054.   1076.    300.     58.    118.    798.   1061.   1065.   1065.   1065.   1030.
  1C   1941   1037.   1054.    673.    301.     71.    335.    436.   1055.   1058.   1065.   1065.   1065.
  1C   1942   1003.   1049.    593.    121.    480.    904.    419.   1012.   1065.   1065.   1065.   1060.
  1C   1943   1021.   1039.    962.    465.    232.    225.    570.   1065.   1065.   1065.   1065.   1065.
  1C   1944   1018.   1038.   1068.    773.    292.   1031.    737.   1001.   1019.   1065.   1065.   1065.
  1C   1945   1023.   1054.    801.    780.    356.    241.   1064.    984.   1065.   1065.   1065.   1065.
  1C   1946   1068.    986.    740.    705.    593.    742.   1019.    989.   1065.   1065.   1065.   1065.
  1C   1947   1065.   1032.    995.    711.    946.    691.   1059.   1049.   1029.   1058.   1065.   1065.
  1C   1948   1067.   1017.   1038.   1057.   1009.    534.    530.   1022.   1065.   1065.   1065.   1065.
  1C   1949   1011.   1049.   1012.    768.    867.    569.   1065.   1043.   1065.   1065.   1065.   1060.
  1C   1950   1055.   1015.   1075.    607.    693.    768.   1016.   1059.   1065.   1065.   1065.   1056.
  1C   1951   1068.    892.    278.    113.     67.    607.    710.   1033.   1065.   1065.   1065.   1065.
  1C   1952    999.   1010.    379.     58.    595.    164.    424.   1064.   1065.   1065.   1065.   1064.
  1C   1953   1065.   1069.    599.    312.   1062.    893.    600.   1028.   1043.   1065.   1061.   1065.
  1C   1954   1050.   1033.   1014.   1059.    992.    541.    692.   1036.   1030.   1065.   1065.   1065.
  1C   1955   1065.   1030.    987.    225.    908.    512.    564.    992.   1065.   1065.   1065.   1065.
  1C   1956   1061.   1078.    230.     58.   1023.   1064.    821.    981.   1065.   1065.   1065.   1023.
  1C   1957   1046.   1065.   1047.   1019.    579.    510.    750.    899.   1054.   1065.   1065.   1042.
  1C   1958   1034.   1051.    752.    451.     58.      0.    397.   1002.   1049.   1065.   1065.   1058.
  1C   1959   1062.   1060.   1010.   1010.    517.   1054.   1026.   1065.   1065.   1065.   1065.   1071.
  1C   1960   1065.   1065.   1014.    992.    631.   1037.    903.   1051.   1065.   1065.   1065.   1058.
  1C   1961   1065.   1064.   1016.    383.    921.    705.    931.   1044.   1064.   1065.   1060.   1040.
  1C   1962   1065.   1010.    995.   1001.    116.    750.   1059.   1062.   1065.   1065.   1065.   1065.
  1C   1963    991.   1038.   1028.    627.    343.    372.    248.   1043.   1063.   1065.   1065.   1042.
  1C   1964   1063.    864.    660.    467.   1060.   1024.   1052.   1051.   1010.   1061.   1054.   1058.
  1C   1965   1071.   1028.    552.    132.   1026.    657.    315.   1065.   1065.   1050.   1039.   1065.
  1C   1966   1062.   1011.    512.    333.    510.   1050.   1037.   1054.   1059.   1050.   1065.   1065.
  1C   1967   1065.    985.    550.     58.    978.    112.      0.   1064.   1032.   1065.   1065.   1065.
  1C   1968   1057.   1008.   1042.    542.    323.    298.    967.   1042.   1065.   1065.    998.   1065.
  1C   1969   1006.   1001.    524.     58.      0.    697.    752.   1065.   1065.   1065.   1065.   1039.
  1C   1970   1012.   1017.   1060.    324.    767.   1075.   1046.   1064.   1060.   1065.   1065.   1065.
  1C   1971   1025.    646.     88.    223.   1022.    832.    620.    996.   1065.   1065.   1065.   1065.
  1C   1972   1050.   1030.    997.   1027.   1024.   1065.   1033.   1051.   1056.   1065.   1065.   1015.
  1C   1973   1074.    571.    205.     58.      0.    183.   1049.   1065.   1065.   1065.   1065.   1062.
  1C   1974   1047.    988.    525.    129.    983.    230.    442.   1065.   1060.   1033.   1065.   1065.
  1C   1975   1004.   1046.   1007.   1034.    583.    297.    501.   1065.   1065.   1061.    997.   1065.
  1C   1976   1054.   1071.   1059.   1066.   1079.   1042.   1004.   1082.   1072.   1082.   1030.   1071.
  1C   1977   1046.   1018.    874.    792.   1000.   1019.   1073.    743.   1082.   1079.   1082.   1045.
  1C   1978   1052.    982.   1072.    312.     88.     50.    372.   1061.   1065.   1065.   1065.   1050.
  1C   1979   1065.   1050.   1039.    703.    371.    187.    793.   1065.   1065.   1053.   1065.   1065.
  1C   1980   1065.    990.    698.    123.     58.    944.    747.   1050.   1065.   1023.   1065.   1065.
  1C   1981   1065.   1063.    986.    592.    938.    367.    796.   1059.   1065.   1065.   1065.   1065.
  1C   1982    991.   1036.    544.    143.    390.      4.    406.   1065.   1041.   1063.   1065.    991.
  1C   1983   1045.    554.    333.     50.      0.      0.    382.   1049.   1065.   1065.   1065.   1004.
  1C   1984   1026.    902.    178.    568.    267.   1024.   1042.   1065.   1065.   1065.   1065.   1064.
  1C   1985   1062.   1012.    601.    573.   1004.    502.    960.   1065.   1051.   1065.   1065.   1058.
  1C   1986   1023.   1004.    709.    462.     58.      7.    636.   1045.   1065.   1065.   1065.   1024.
  1C   1987   1082.   1079.   1031.   1030.    690.    715.   1068.   1082.   1082.   1082.   1082.   1082.
  1C   1988   1031.   1089.    941.    508.   1031.   1064.   1031.   1021.   1038.   1082.   1082.   1082.
  1C   1989   1079.   1079.   1012.    879.    687.    457.   1048.   1080.   1078.   1082.   1072.   1100.
  1C   1990   1017.   1011.    814.    756.    758.   1002.    980.    683.   1082.   1082.   1082.   1080.
  1C   1991   1070.   1065.   1093.   1047.   1027.    603.   1007.   1043.   1057.   1081.   1073.   1082.
  1C   1992   1049.   1064.   1092.    819.    258.    231.    874.   1082.   1072.   1082.   1082.   1082.
  1C   1993   1029.   1041.    572.     58.      0.      0.    870.    904.   1028.   1065.   1065.   1065.
  1C   1994   1025.   1047.    970.    741.    344.   1080.    856.    801.   1082.   1082.   1082.   1076.
  1C   1995   1017.   1055.    621.     58.    765.      0.    760.   1024.   1040.   1065.   1065.   1065.
  1C   1996   1065.   1065.    694.     58.      0.     10.    552.   1058.   1065.   1065.   1065.   1065.
  1C   1997   1075.   1002.    197.     27.   1039.   1053.   1052.   1017.   1063.   1065.   1061.   1065.
  1C   1998   1054.    981.    550.     58.      0.    288.    454.    369.   1049.   1065.   1065.   1058.
  1C   1999    998.   1046.    826.    273.     82.    410.    598.   1016.   1060.   1065.   1065.   1052.
  1C   2000   1045.   1007.   1055.    624.     58.    995.    713.   1023.   1062.   1065.   1065.   1045.
  1C   2001   1046.    888.    621.    424.    127.    559.    482.   1065.   1064.   1065.   1065.   1052.
  1C   2002   1052.   1029.    219.    163.    762.    388.   1005.   1033.   1065.   1065.   1065.   1065.
  1C   2003   1065.   1031.    292.    129.    496.    846.    511.   1035.   1065.   1065.   1060.   1065.
  1C   2004   1043.   1015.    539.    140.     58.   1036.   1024.   1051.   1065.   1065.   1065.   1027.
  1C   2005    986.    770.    344.     74.     36.    257.    452.   1022.   1051.   1065.   1065.   1061.
  1C   2006   1059.   1034.    662.    257.    730.    119.     61.   1010.   1065.   1065.   1065.   1062.
  1C   2007   1054.   1076.   1054.    992.    595.   1052.    918.   1059.   1065.   1065.   1065.   1048.
  1C   2008   1101.   1036.   1083.    301.    519.   1066.   1082.   1082.   1082.   1082.   1082.   1082.
  1C   2009   1054.   1009.    989.    594.    297.    494.    621.   1039.   1064.   1065.   1064.   1052.
  1C   2010   1039.   1057.   1007.    451.     93.    670.    412.   1031.   1065.   1065.   1065.   1065.
  1C   2011    991.   1073.    556.    525.    206.    134.   1012.   1022.    991.   1057.   1065.   1065.
  1C   2012   1044.   1013.   1054.    991.   1036.   1015.    897.   1065.   1064.   1065.   1065.   1065.
  1C   2013   1032.   1063.    900.    794.   1055.   1019.   1039.   1064.   1053.   1065.   1065.   1051.
  1C   2014   1082.   1079.   1066.   1068.   1081.   1083.   1005.   1082.   1078.   1080.   1078.   1065.
  2CT1 4  TOTAL HISTORIC CU OF SEEPAGE
  2CT2     UNION ISLAND  (WEST)                                1    2  10        
  2C   1922   1245.   1235.   1246.    601.    143.    888.    872.   1212.   1246.   1248.   1248.   1248.
  2C   1923   1207.   1257.    607.    504.    933.   1248.    692.   1245.   1239.   1248.   1248.   1187.
  2C   1924   1214.   1216.   1205.   1234.   1243.   1174.   1204.   1225.   1237.   1237.   1237.   1236.
  2C   1925   1257.   1259.   1010.    705.    380.   1160.    556.   1194.   1240.   1248.   1248.   1248.
  2C   1926   1234.   1195.   1266.   1176.    781.   1243.    625.   1245.   1248.   1248.   1248.   1248.
  2C   1927   1215.   1265.   1199.    723.    391.    754.    513.   1247.   1237.   1248.   1248.   1248.
  2C   1928   1236.   1264.   1232.    836.    903.    561.    969.   1233.   1248.   1248.   1248.   1248.
  2C   1929   1237.   1182.   1189.    859.   1192.   1176.   1214.   1237.   1245.   1237.   1237.   1237.
  2C   1930   1245.   1248.   1250.   1083.    596.    612.    872.   1226.   1248.   1248.   1241.   1244.
  2C   1931   1188.   1213.   1234.   1247.   1152.   1205.   1224.   1221.   1231.   1237.   1237.   1237.
  2C   1932   1245.   1242.    769.    562.     92.   1208.   1230.   1201.   1248.   1248.   1248.   1248.
  2C   1933   1237.   1228.   1247.    776.   1195.   1101.   1237.   1212.   1230.   1237.   1237.   1237.
  2C   1934   1208.   1237.   1188.   1164.    619.   1237.   1224.   1194.   1228.   1237.   1237.   1206.
  2C   1935   1233.   1219.   1085.    515.    936.    452.    339.   1248.   1248.   1248.   1248.   1241.
  2C   1936   1195.   1213.   1251.    867.    595.    889.   1024.   1206.   1228.   1246.   1248.   1248.
  2C   1937   1203.   1245.   1244.    658.    400.     74.    922.   1248.   1247.   1248.   1248.   1248.
  2C   1938   1224.   1253.    748.    432.     74.     74.    936.   1240.   1248.   1248.   1248.   1244.
  2C   1939   1186.   1222.   1168.   1220.   1165.   1164.   1219.   1225.   1237.   1237.   1237.   1232.
  2C   1940   1203.   1239.   1247.    421.     74.    211.    899.   1242.   1248.   1248.   1248.   1208.
  2C   1941   1219.   1233.    756.    392.     74.    275.    379.   1240.   1236.   1248.   1248.   1248.
  2C   1942   1186.   1224.    643.    132.    695.   1132.    410.   1207.   1248.   1248.   1248.   1241.
  2C   1943   1193.   1239.   1222.    609.    339.    325.    676.   1248.   1248.   1248.   1248.   1248.
  2C   1944   1195.   1224.   1250.   1002.    445.   1227.    883.   1171.   1198.   1248.   1248.   1248.
  2C   1945   1207.   1239.   1096.    881.    515.    307.   1248.   1257.   1246.   1248.   1248.   1248.
  2C   1946   1260.   1172.   1104.    815.    681.    889.   1196.   1174.   1248.   1248.   1248.   1248.
  2C   1947   1245.   1210.   1253.    779.   1135.    861.   1242.   1231.   1212.   1240.   1248.   1248.
  2C   1948   1250.   1202.   1223.   1239.   1193.    627.    537.   1200.   1242.   1248.   1248.   1248.
  2C   1949   1197.   1238.   1182.    945.   1083.    629.   1248.   1225.   1248.   1247.   1247.   1246.
  2C   1950   1239.   1192.   1252.    627.    877.    963.   1168.   1242.   1248.   1248.   1248.   1247.
  2C   1951   1245.   1208.    414.    123.    144.    724.    785.   1221.   1248.   1248.   1248.   1248.
  2C   1952   1185.   1180.    456.     74.    799.    189.    371.   1247.   1248.   1248.   1248.   1246.
  2C   1953   1248.   1239.    586.    368.   1246.   1128.    645.   1213.   1227.   1248.   1242.   1248.
  2C   1954   1234.   1208.   1204.   1230.   1176.    826.    736.   1216.   1215.   1248.   1248.   1248.
  2C   1955   1248.   1217.   1262.    322.   1079.    551.    656.   1176.   1248.   1248.   1248.   1248.
  2C   1956   1245.   1257.    448.     74.   1209.   1246.    939.   1168.   1248.   1248.   1248.   1195.
  2C   1957   1238.   1248.   1230.   1200.    664.    558.    936.   1003.   1240.   1248.   1248.   1224.
  2C   1958   1210.   1237.    947.    579.     74.      0.    393.   1179.   1230.   1248.   1248.   1242.
  2C   1959   1246.   1242.   1193.   1197.    593.   1238.   1221.   1248.   1248.   1248.   1248.   1241.
  2C   1960   1248.   1248.   1192.   1184.    828.   1222.   1119.   1233.   1248.   1248.   1248.   1240.
  2C   1961   1248.   1221.   1201.    415.   1079.    854.   1090.   1225.   1248.   1248.   1243.   1224.
  2C   1962   1248.   1176.   1185.   1189.    151.    920.   1248.   1248.   1248.   1248.   1248.   1248.
  2C   1963   1234.   1219.   1069.    610.    432.    413.    220.   1234.   1248.   1248.   1248.   1223.
  2C   1964   1260.   1219.    888.    560.   1243.   1204.   1236.   1236.   1185.   1245.   1235.   1241.
  2C   1965   1256.   1200.    640.    240.   1205.    780.    283.   1247.   1248.   1231.   1221.   1248.
  2C   1966   1245.   1182.    558.    407.    748.   1233.   1218.   1237.   1241.   1227.   1248.   1247.
  2C   1967   1248.   1171.    733.     99.   1125.    134.      0.   1247.   1208.   1248.   1248.   1248.
  2C   1968   1241.   1188.   1229.    558.    420.    404.   1106.   1224.   1248.   1248.   1234.   1248.
  2C   1969   1188.   1173.    639.     74.     11.    864.    868.   1248.   1247.   1248.   1248.   1224.
  2C   1970   1189.   1199.   1248.    454.    930.   1258.   1230.   1246.   1242.   1248.   1248.   1248.
  2C   1971   1210.   1007.    196.    264.   1215.    996.    733.   1175.   1248.   1248.   1248.   1247.
  2C   1972   1236.   1212.   1177.   1195.   1204.   1247.   1223.   1233.   1241.   1248.   1248.   1198.
  2C   1973   1227.    629.    204.     74.      0.    204.   1229.   1248.   1248.   1248.   1248.   1247.
  2C   1974   1228.   1262.    544.    159.   1207.    223.    401.   1248.   1246.   1219.   1248.   1248.
  2C   1975   1192.   1225.   1187.   1215.    681.    364.    507.   1248.   1247.   1243.   1178.   1248.
  2C   1976   1231.   1229.   1215.   1221.   1241.   1199.   1182.   1237.   1227.   1237.   1188.   1237.
  2C   1977   1200.   1179.    971.    713.   1177.   1179.   1225.    686.   1237.   1233.   1237.   1203.
  2C   1978   1233.   1264.   1171.    431.     94.     74.    401.   1242.   1248.   1248.   1248.   1234.
  2C   1979   1248.   1221.   1224.    937.    549.    310.    841.   1246.   1248.   1236.   1248.   1248.
  2C   1980   1248.   1179.   1008.    446.     85.   1096.    866.   1233.   1248.   1211.   1248.   1248.
  2C   1981   1248.   1246.   1266.    992.   1119.    573.   1018.   1242.   1248.   1248.   1248.   1245.
  2C   1982   1186.   1207.    638.    132.    700.     74.    392.   1248.   1226.   1245.   1248.   1173.
  2C   1983   1225.    671.    344.     71.      0.      0.    330.   1241.   1248.   1248.   1247.   1192.
  2C   1984   1206.   1167.    467.    711.    335.   1209.   1227.   1248.   1247.   1248.   1247.   1246.
  2C   1985   1237.   1183.    777.    689.   1202.    610.   1107.   1248.   1231.   1248.   1248.   1242.
  2C   1986   1213.   1202.   1046.    598.    117.     74.    792.   1224.   1248.   1247.   1248.   1210.
  2C   1987   1235.   1231.   1193.   1228.    934.    914.   1221.   1237.   1237.   1237.   1237.   1237.
  2C   1988   1186.   1179.   1109.    587.   1181.   1218.   1167.   1173.   1189.   1237.   1237.   1237.
  2C   1989   1237.   1249.   1197.   1101.    801.    551.   1211.   1234.   1237.   1237.   1225.   1169.
  2C   1990   1182.   1175.    892.    777.    877.   1164.   1142.    549.   1237.   1237.   1237.   1234.
  2C   1991   1229.   1218.   1235.   1200.   1205.    566.   1171.   1194.   1207.   1237.   1226.   1237.
  2C   1992   1152.   1223.   1154.   1107.    278.    233.    822.   1237.   1225.   1237.   1237.   1237.
  2C   1993   1217.   1222.    667.     74.      0.      0.    989.    822.   1211.   1248.   1248.   1248.
  2C   1994   1180.   1230.   1137.    689.    440.   1237.    839.    472.   1237.   1237.   1237.   1231.
  2C   1995   1190.   1206.    654.     74.    938.      0.    899.   1207.   1222.   1248.   1248.   1248.
  2C   1996   1248.   1248.    902.     89.      7.      0.    494.   1234.   1248.   1248.   1248.   1248.
  2C   1997   1259.   1180.    496.     74.   1221.   1232.   1242.   1185.   1248.   1248.   1245.   1248.
  2C   1998   1241.   1263.    657.     74.      0.    311.    406.    306.   1230.   1248.   1247.   1238.
  2C   1999   1171.   1240.   1077.    411.    119.    351.    492.   1183.   1242.   1248.   1248.   1235.
  2C   2000   1230.   1210.   1242.    651.    155.   1197.    864.   1205.   1244.   1248.   1248.   1219.
  2C   2001   1199.    882.    691.    444.    172.    602.    456.   1248.   1248.   1248.   1248.   1229.
  2C   2002   1238.   1218.    492.    181.    912.    475.   1158.   1218.   1248.   1247.   1248.   1248.
  2C   2003   1248.   1210.    469.    207.    647.   1016.    497.   1212.   1248.   1248.   1234.   1248.
  2C   2004   1246.   1202.    649.    363.     74.   1225.   1238.   1235.   1248.   1248.   1241.   1204.
  2C   2005   1262.    971.    361.    102.     62.    228.    416.   1205.   1236.   1248.   1247.   1248.
  2C   2006   1248.   1213.   1030.    450.    824.    193.    209.   1178.   1248.   1248.   1248.   1243.
  2C   2007   1240.   1255.   1240.   1228.    653.   1242.   1121.   1241.   1248.   1248.   1248.   1233.
  2C   2008   1159.   1197.   1210.    258.    737.   1221.   1237.   1237.   1237.   1237.   1237.   1237.
  2C   2009   1236.   1180.   1247.    656.    422.    827.    805.   1230.   1247.   1248.   1246.   1239.
  2C   2010   1200.   1240.   1122.    497.    116.    786.    430.   1214.   1248.   1248.   1248.   1248.
  2C   2011   1185.   1174.    833.    622.    445.    310.   1170.   1208.   1248.   1239.   1248.   1246.
  2C   2012   1229.   1199.   1234.   1264.   1210.   1210.   1154.   1248.   1246.   1248.   1248.   1248.
  2C   2013   1211.   1176.    668.    779.   1234.   1193.   1213.   1245.   1233.   1248.   1248.   1232.
  2C   2014   1224.   1241.   1224.   1224.   1157.   1160.   1177.   1224.   1218.   1235.   1231.   1221.
  3CT1 4  TOTAL HISTORIC CU OF SEEPAGE
  3CT2     GRAND ISLAND                                        1    3  31        
  3C   1922   1329.   1392.    715.    124.      0.    384.   1085.   1312.   1364.   1366.   1366.   1366.
  3C   1923   1345.   1332.    125.     59.   1056.   1366.    268.   1366.   1366.   1366.   1366.   1321.
  3C   1924   1326.   1314.   1352.   1213.    897.   1022.   1336.   1343.   1346.   1346.   1346.   1346.
  3C   1925   1348.   1319.    339.    259.      0.    468.    229.   1226.   1362.   1366.   1366.   1366.
  3C   1926   1343.   1349.   1385.    831.    125.   1349.    200.   1366.   1366.   1366.   1366.   1366.
  3C   1927   1393.   1185.    921.    248.      0.    506.    335.   1346.   1306.   1366.   1366.   1366.
  3C   1928   1306.   1178.    208.    245.    147.      0.    827.   1332.   1366.   1366.   1366.   1366.
  3C   1929   1338.   1287.    632.    189.    766.    872.   1298.   1346.   1271.   1346.   1346.   1346.
  3C   1930   1354.   1366.   1364.    633.    125.      9.   1180.   1361.   1366.   1366.   1366.   1350.
  3C   1931   1330.   1310.   1334.    789.    354.    821.   1342.   1265.   1313.   1346.   1346.   1346.
  3C   1932   1316.   1317.    124.     59.      0.   1225.   1296.   1323.   1366.   1366.   1366.   1366.
  3C   1933   1346.   1311.   1343.    221.   1010.    539.   1346.   1276.   1346.   1346.   1346.   1346.
  3C   1934   1265.   1346.   1135.    929.     64.   1337.   1315.   1314.   1313.   1346.   1346.   1340.
  3C   1935   1311.   1299.    771.    118.    771.      0.      0.   1365.   1366.   1366.   1366.   1366.
  3C   1936   1397.   1361.   1204.    176.      0.    339.    551.   1353.   1363.   1366.   1366.   1323.
  3C   1937   1304.   1358.   1260.    535.     72.      0.   1320.   1366.   1352.   1366.   1366.   1366.
  3C   1938   1364.   1373.    207.    124.      0.      0.    538.   1356.   1366.   1366.   1366.   1343.
  3C   1939   1280.   1299.   1258.   1047.    818.    629.   1331.   1318.   1346.   1346.   1346.   1340.
  3C   1940   1300.   1356.   1355.    124.      0.      0.    677.   1329.   1366.   1366.   1366.   1366.
  3C   1941   1364.   1372.    124.      0.      0.      0.    142.   1390.   1366.   1366.   1366.   1366.
  3C   1942   1345.   1339.    864.    124.      0.    253.      0.   1382.   1366.   1366.   1366.   1359.
  3C   1943   1302.   1301.    910.    125.    154.      0.    704.   1355.   1356.   1366.   1366.   1366.
  3C   1944   1347.   1384.   1375.    986.    246.   1317.    888.   1394.   1346.   1366.   1366.   1366.
  3C   1945   1313.   1304.    615.    238.    124.      0.   1356.   1329.   1362.   1366.   1366.   1366.
  3C   1946   1348.   1316.    182.    454.    777.    765.   1365.   1308.   1366.   1366.   1366.   1366.
  3C   1947   1347.   1324.   1173.    960.    836.    404.   1360.   1350.   1330.   1366.   1366.   1366.
  3C   1948   1386.   1377.   1378.   1200.   1174.    634.    343.   1373.   1326.   1366.   1366.   1366.
  3C   1949   1311.   1332.   1299.    977.    921.    228.   1366.   1365.   1366.   1348.   1364.   1360.
  3C   1950   1346.   1381.   1366.    868.    213.    376.   1281.   1343.   1366.   1366.   1366.   1337.
  3C   1951   1392.   1132.    124.      0.      0.    443.   1045.   1390.   1364.   1366.   1360.   1349.
  3C   1952   1355.   1276.    153.      0.    111.      0.    612.   1359.   1350.   1366.   1366.   1360.
  3C   1953   1366.   1300.    194.    125.   1353.   1070.    322.   1343.   1311.   1366.   1366.   1366.
  3C   1954   1366.   1348.   1348.   1078.    870.    783.    689.   1345.   1357.   1366.   1359.   1366.
  3C   1955   1366.   1381.   1123.    196.    911.   1321.    687.   1318.   1366.   1366.   1366.   1357.
  3C   1956   1349.   1332.    124.      0.   1220.   1355.    563.   1378.   1366.   1366.   1366.   1301.
  3C   1957   1333.   1359.   1336.   1394.    928.    713.    901.    505.   1366.   1366.   1366.   1340.
  3C   1958   1331.   1338.   1195.    124.      0.      0.      0.   1384.   1360.   1366.   1343.   1355.
  3C   1959   1355.   1349.   1388.   1152.    660.   1311.   1350.   1366.   1366.   1366.   1366.   1306.
  3C   1960   1366.   1366.   1332.   1165.    935.    637.   1249.   1326.   1366.   1359.   1366.   1366.
  3C   1961   1357.   1325.   1182.    408.   1240.    414.   1025.   1358.   1366.   1366.   1357.   1364.
  3C   1962   1357.   1328.   1366.   1135.    109.    165.   1360.   1366.   1366.   1366.   1366.   1366.
  3C   1963   1200.   1147.    262.     86.    236.      0.      0.   1303.   1366.   1366.   1366.   1352.
  3C   1964   1345.   1189.    968.    204.   1360.   1355.   1343.   1366.   1375.   1366.   1364.   1366.
  3C   1965   1305.   1317.    237.    125.   1367.   1150.    275.   1366.   1366.   1366.   1326.   1366.
  3C   1966   1362.   1365.    193.    124.    135.   1341.   1333.   1338.   1366.   1350.   1366.   1366.
  3C   1967   1366.   1184.    153.      0.    619.      0.      0.   1366.   1370.   1366.   1366.   1366.
  3C   1968   1366.   1359.   1326.    809.    172.    224.   1328.   1350.   1366.   1366.   1379.   1366.
  3C   1969   1343.   1393.   1237.    119.      0.    907.    753.   1366.   1366.   1366.   1366.   1366.
  3C   1970   1383.   1331.    240.      0.     23.   1363.   1360.   1366.   1354.   1366.   1366.   1348.
  3C   1971   1337.   1163.    124.    125.   1305.    955.   1221.   1352.   1366.   1366.   1366.   1357.
  3C   1972   1360.   1382.   1077.    887.    868.   1366.   1349.   1361.   1335.   1366.   1366.   1311.
  3C   1973   1380.    191.    124.      0.      0.     38.   1356.   1355.   1366.   1366.   1366.   1357.
  3C   1974   1361.   1033.    182.     83.   1258.      0.    344.   1366.   1308.   1304.   1366.   1366.
  3C   1975   1338.   1311.   1302.   1078.    187.      6.    956.   1366.   1366.   1338.   1357.   1366.
  3C   1976   1286.   1321.   1322.   1288.   1067.   1310.   1302.   1346.   1326.   1346.   1267.   1335.
  3C   1977   1338.   1289.   1347.   1186.   1035.   1045.   1134.   1293.   1326.   1346.   1346.   1272.
  3C   1978   1352.   1396.    917.      0.      0.      0.    256.   1366.   1366.   1366.   1366.   1342.
  3C   1979   1366.   1312.   1387.    162.      3.     95.    870.   1348.   1366.   1360.   1366.   1366.
  3C   1980   1318.   1310.    258.     22.      0.    494.   1042.   1322.   1366.   1325.   1366.   1366.
  3C   1981   1356.   1352.   1320.    861.   1220.    254.   1337.   1356.   1366.   1366.   1366.   1394.
  3C   1982   1394.   1052.    176.      0.     82.      0.    709.   1366.   1366.   1366.   1366.   1375.
  3C   1983   1315.   1073.    184.      0.      0.      0.    272.   1332.   1366.   1366.   1366.   1388.
  3C   1984   1331.   1315.    168.    966.    167.   1349.   1290.   1366.   1359.   1366.   1366.   1366.
  3C   1985   1332.    963.    189.    126.    222.     42.   1301.   1359.   1356.   1366.   1365.   1328.
  3C   1986   1311.   1278.    888.    149.      0.      0.   1224.   1336.   1366.   1366.   1366.   1366.
  3C   1987   1345.   1335.   1341.   1282.    720.    539.   1331.   1344.   1346.   1346.   1346.   1346.
  3C   1988   1309.   1295.    996.    139.   1311.   1339.   1305.   1278.   1301.   1346.   1346.   1346.
  3C   1989   1327.   1281.   1229.    893.    762.    640.   1307.   1344.   1346.   1346.   1336.   1266.
  3C   1990   1327.   1116.   1180.    515.    160.   1133.   1343.   1249.   1346.   1346.   1346.   1346.
  3C   1991   1305.   1325.   1268.   1340.   1335.    839.   1342.   1335.   1356.   1342.   1329.   1345.
  3C   1992   1323.   1293.   1289.   1223.    280.    146.   1115.   1346.   1330.   1346.   1346.   1346.
  3C   1993   1377.   1349.    260.      0.      0.    197.   1188.   1386.   1399.   1366.   1366.   1366.
  3C   1994   1317.   1280.   1097.    579.     64.   1339.   1174.   1347.   1346.   1346.   1346.   1343.
  3C   1995   1399.   1202.    344.      0.    947.      0.   1025.   1014.   1388.   1366.   1366.   1366.
  3C   1996   1366.   1364.    710.    124.      0.    216.    661.   1329.   1366.   1366.   1366.   1366.
  3C   1997   1324.   1368.    216.      0.   1347.   1340.   1357.   1367.   1366.   1366.   1361.   1366.
  3C   1998   1317.   1357.   1017.    124.      0.    168.    399.    481.   1358.   1366.   1366.   1312.
  3C   1999   1398.   1316.   1137.    566.    124.     44.    979.   1362.   1366.   1366.   1366.   1366.
  3C   2000   1346.   1308.   1343.   1332.    891.   1121.   1154.   1386.   1362.   1366.   1366.   1337.
  3C   2001   1306.   1297.   1234.    867.    244.    396.    431.   1366.   1350.   1366.   1366.   1343.
  3C   2002   1323.   1331.    882.    507.    475.    394.   1328.   1382.   1366.   1366.   1366.   1366.
  3C   2003   1366.   1356.    161.    125.    352.    356.    272.   1397.   1366.   1366.   1345.   1366.
  3C   2004   1359.   1384.   1024.    220.     57.   1229.   1357.   1358.   1366.   1366.   1366.   1398.
  3C   2005   1392.   1213.    223.    124.      0.      0.    598.   1365.   1329.   1366.   1366.   1366.
  3C   2006   1347.   1316.   1241.   1023.    853.    227.      0.   1368.   1366.   1366.   1366.   1366.
  3C   2007   1362.   1312.   1278.   1329.    854.   1355.   1090.   1350.   1366.   1366.   1366.   1364.
  3C   2008   1320.   1297.   1285.   1202.   1061.   1343.   1346.   1342.   1346.   1346.   1346.   1346.
  3C   2009   1340.   1322.   1361.   1147.    573.    775.    982.   1389.   1325.   1366.   1366.   1359.
  3C   2010   1350.   1338.   1178.    189.    125.    276.    196.   1379.   1366.   1366.   1366.   1366.
  3C   2011   1361.   1315.    221.    170.    125.      0.   1349.   1373.   1313.   1366.   1366.   1364.
  3C   2012   1305.   1344.   1338.   1169.   1342.    564.    333.   1366.   1361.   1366.   1366.   1366.
  3C   2013   1391.   1383.    175.    778.   1337.   1398.   1378.   1332.   1356.   1366.   1366.   1307.
  3C   2014   1346.   1323.   1302.   1338.    773.    986.   1035.   1346.   1346.   1344.   1343.   1333.
  4CT1 4  TOTAL HISTORIC CU OF SEEPAGE
  4CT2     MOSSDALE                                            2   17   8        
  4C   1922      0.      0.     10.      0.      0.     25.     39.      0.      0.      0.      0.      0.
  4C   1923      0.      0.      0.      6.     47.      0.     39.      0.      0.      0.      0.     34.
  4C   1924      0.      0.      0.      0.      0.     18.     49.      0.      0.      0.      0.      0.
  4C   1925      5.     10.     18.      5.     32.      0.      0.     33.      0.      0.      0.      0.
  4C   1926      0.      0.     16.     44.      0.      0.      0.      0.      0.      0.      0.      0.
  4C   1927      0.     46.     49.     25.      0.      0.      0.      0.      0.      0.      0.      0.
  4C   1928      0.     27.      0.      0.     29.     45.      0.      0.      0.      0.      0.      0.
  4C   1929      0.     10.     24.     15.     48.     30.      0.      0.      0.      0.      0.      0.
  4C   1930      0.      0.      5.      0.      0.      0.     16.      0.      0.      0.      0.      0.
  4C   1931     37.      0.      0.      0.      0.      0.      0.     42.      0.      0.      0.      0.
  4C   1932      0.      0.      0.      5.      6.      0.      0.     45.      0.      0.      0.      0.
  4C   1933      0.      0.      0.      0.     45.      0.      0.      0.      0.      0.      0.      0.
  4C   1934      0.      0.      0.      0.      0.      0.      0.     37.      0.      0.      0.      0.
  4C   1935      0.      0.      6.      0.     49.      3.     19.      0.      0.      0.      0.      0.
  4C   1936     44.      0.      3.      0.      0.     26.      0.      0.      0.      0.      0.      0.
  4C   1937      0.      0.      3.      0.     19.      0.     17.      0.      0.      0.      0.      0.
  4C   1938      0.      5.     34.      0.     12.     45.      0.      0.      0.      0.      0.      0.
  4C   1939     42.      0.      3.      0.     15.      0.      0.      0.      0.      0.      0.      0.
  4C   1940      0.      0.      0.     13.      0.      0.     47.      0.      0.      0.      0.      0.
  4C   1941      0.      0.     40.     20.      0.     18.      0.      0.      0.      0.      0.      0.
  4C   1942     35.      0.      0.      0.     26.      0.      0.      0.      0.      0.      0.      0.
  4C   1943     44.     12.      0.     34.     42.      0.      5.      0.      0.      0.      0.      0.
  4C   1944     38.      0.      1.     38.      0.      0.      0.     19.     38.      0.      0.      0.
  4C   1945      0.      0.      0.      0.      8.      0.      0.      0.      0.      0.      0.      0.
  4C   1946     19.     20.     32.      0.      0.     27.      0.     16.      0.      0.      0.      0.
  4C   1947      0.      0.      0.      0.     46.      0.      0.      0.      0.      0.      0.      0.
  4C   1948      0.      0.      0.      0.     45.      0.      0.      0.      0.      0.      0.      0.
  4C   1949     43.      0.     41.      0.     25.     13.      0.      0.      0.      0.      0.      0.
  4C   1950      0.     47.      6.      0.     46.      9.      0.      0.      0.      0.      0.      0.
  4C   1951      0.      0.     33.      0.      0.      0.     31.      0.      0.      0.      0.      0.
  4C   1952     29.     25.      0.     35.     38.      0.     30.      0.      0.      0.      0.      0.
  4C   1953      0.      0.      0.     47.      0.     28.      0.      0.      0.      0.      0.      0.
  4C   1954      0.      0.      0.      0.     36.      0.      8.      0.      0.      0.      0.      0.
  4C   1955      0.      0.     23.     19.     33.     18.      0.     21.      0.      0.      0.      0.
  4C   1956      0.      6.     23.      0.      0.      0.     48.      4.      0.      0.      0.      0.
  4C   1957      0.      0.      0.      0.     36.     13.     11.     33.      0.      0.      0.      0.
  4C   1958      0.      0.     27.      0.      0.     50.      0.     26.      0.      0.      0.      0.
  4C   1959      0.      0.     41.      0.     13.      0.      0.      0.      0.      0.      0.      0.
  4C   1960      0.      0.     48.     39.     24.      0.     48.      0.      0.      0.      0.      0.
  4C   1961      0.      0.      0.      0.     30.      0.      0.      0.      0.      0.      0.      0.
  4C   1962      0.     30.     30.     39.     22.     45.      0.      0.      0.      0.      0.      0.
  4C   1963     38.      0.      0.      0.     26.      0.      0.      0.      0.      0.      0.      0.
  4C   1964      0.      0.      0.     44.      0.      0.      0.      0.     40.      0.      0.      0.
  4C   1965      9.      0.      0.      0.      0.      0.      3.      0.      0.      0.      0.      0.
  4C   1966      0.     29.     41.      6.      0.      0.      0.      0.      0.      0.      0.      0.
  4C   1967      0.     39.     31.     32.      0.     21.      0.      0.      0.      0.      0.      0.
  4C   1968      0.     39.      0.     22.      0.     18.     33.      0.      0.      0.      0.      0.
  4C   1969     26.     21.      0.     19.      0.      2.     30.      0.      0.      0.      0.      0.
  4C   1970     49.     48.     22.      0.      0.      7.      0.      0.      0.      0.      0.      0.
  4C   1971      0.      6.      6.     41.      0.     11.      2.     23.      0.      0.      0.      0.
  4C   1972      0.      0.     40.      0.      0.      0.      0.      0.      0.      0.      0.     47.
  4C   1973      0.     33.     40.     44.      0.     18.      0.      0.      0.      0.      0.      0.
  4C   1974      0.     24.     35.      0.      0.     27.     41.      0.      0.      0.      0.      0.
  4C   1975     41.      0.     31.      0.     10.     46.      0.      0.      0.      0.     15.      0.
  4C   1976      0.      0.      0.      0.      0.      0.     21.      0.      0.      0.     37.      0.
  4C   1977      0.     16.     34.      3.      0.     33.      0.      0.      0.      0.      0.      0.
  4C   1978      0.     12.     30.      5.     36.      4.      0.      0.      0.      0.      0.      0.
  4C   1979      0.      0.      0.      0.     17.      3.      0.      0.      0.      0.      0.      0.
  4C   1980      0.     29.     23.      0.     26.      5.     40.      0.      0.      0.      0.      0.
  4C   1981      0.      0.     23.      0.     24.      0.     39.      0.      0.      0.      0.      0.
  4C   1982     41.     45.      0.     27.      0.      0.      0.      0.      0.      0.      0.      4.
  4C   1983      0.      0.      0.     33.      0.      0.     45.      0.      0.      0.      0.     40.
  4C   1984      0.     26.      0.      0.      0.      0.      0.      0.      0.      0.      0.      0.
  4C   1985      0.     40.      0.      0.      0.      0.      0.      0.      0.      0.      0.      0.
  4C   1986      0.      0.      0.      0.     50.      0.     33.      0.      0.      0.      0.      0.
  4C   1987      0.      0.     47.     40.     29.     32.      0.      0.      0.      0.      0.      0.
  4C   1988     37.     28.      0.      0.     31.      0.     13.     20.     40.      0.      0.      0.
  4C   1989      0.      0.     25.     37.      0.     17.      0.      0.      0.      0.      0.      0.
  4C   1990     32.     23.      0.      0.      1.     44.      0.      0.      0.      0.      0.      0.
  4C   1991      0.      0.      0.      0.     34.      0.      0.     47.      0.      0.      0.      0.
  4C   1992      0.      0.      0.      0.     31.      0.     32.      0.      0.      0.      0.      0.
  4C   1993      0.      0.      1.     27.      0.      0.      0.     33.      0.      0.      0.      0.
  4C   1994     30.      0.      0.      0.     39.      0.      0.     21.      0.      0.      0.      0.
  4C   1995     43.      0.     36.     10.      0.     46.      0.      0.      0.      0.      0.      0.
  4C   1996      0.      0.      0.     16.      0.      0.      0.      0.      0.      0.      0.      0.
  4C   1997     11.     32.      0.     16.      0.      0.      0.     38.      0.      0.      0.      0.
  4C   1998      0.     16.      0.      0.      0.      0.      0.     45.      0.      0.      0.      0.
  4C   1999     24.      0.      0.     46.     46.      0.      0.     35.      0.      0.      0.      0.
  4C   2000      0.      0.      0.     35.      0.     49.     29.      0.      0.      0.      0.      0.
  4C   2001      0.     39.      0.     18.      0.      0.      0.      0.      0.      0.      0.      0.
  4C   2002      0.      0.     22.      4.      0.      0.      0.      0.      0.      0.      0.      0.
  4C   2003      0.      0.     15.      0.     20.     45.     27.      0.      0.      0.      0.      0.
  4C   2004      0.     40.      0.      0.      0.      0.      0.      0.      0.      0.      0.     49.
  4C   2005     18.      4.      0.     27.     47.     45.      0.      0.      0.      0.      0.      0.
  4C   2006      0.      0.      0.     26.     42.      0.      0.     40.      0.      0.      0.      0.
  4C   2007      0.     10.      0.      0.      0.      0.     46.      0.      0.      0.      0.      0.
  4C   2008      0.      0.     46.     25.      0.      0.      0.      0.      0.      0.      0.      0.
  4C   2009      0.     21.      0.     13.      0.      0.     26.      0.      0.      0.      0.      0.
  4C   2010      0.      0.      0.      0.     34.      6.      0.      0.      0.      0.      0.      0.
  4C   2011     27.     26.      0.     41.     13.      0.      0.      0.      1.      0.      0.      0.
  4C   2012      0.      0.      0.     26.      0.      0.      0.      0.      0.      0.      0.      0.
  4C   2013      0.      0.      8.     29.      0.     39.      0.      0.      0.      0.      0.      0.
  4C   2014      0.      0.      0.      0.      0.      0.     24.      0.      0.      0.      0.      0.
  5CT1 4  TOTAL HISTORIC CU OF SEEPAGE
  5CT2     MERRITT ISLAND                                      1  150  32        
  5C   1922    350.    361.    191.     68.      0.    124.    366.    411.    350.    350.    350.    350.
  5C   1923    409.    316.     68.     14.    221.    350.     88.    350.    350.    350.    350.    425.
  5C   1924    449.    442.    414.    289.    289.    353.    373.    373.    373.    373.    373.    373.
  5C   1925    351.    371.     83.    115.      0.    115.    162.    365.    350.    350.    350.    350.
  5C   1926    350.    415.    363.    241.     67.    350.    146.    350.    350.    350.    350.    350.
  5C   1927    383.    312.    198.     68.      0.    103.    168.    350.    428.    350.    350.    350.
  5C   1928    353.    324.    249.    155.    161.     71.    307.    432.    350.    350.    350.    350.
  5C   1929    373.    373.    284.    285.    315.    257.    440.    373.    425.    373.    373.    373.
  5C   1930    350.    350.    350.    179.     67.     62.    272.    350.    350.    350.    350.    350.
  5C   1931    446.    424.    373.    307.    195.    385.    373.    373.    373.    373.    373.    373.
  5C   1932    419.    359.     68.     67.      0.    360.    383.    412.    350.    350.    350.    350.
  5C   1933    373.    373.    390.    258.    416.    238.    373.    427.    373.    373.    373.    373.
  5C   1934    417.    373.    286.    282.    171.    373.    373.    455.    373.    373.    373.    373.
  5C   1935    350.    433.    240.     68.    351.      0.    105.    350.    350.    350.    350.    350.
  5C   1936    397.    425.    318.     91.      0.    218.    279.    429.    350.    350.    350.    350.
  5C   1937    416.    350.    417.    226.     33.      0.    353.    350.    350.    350.    350.    350.
  5C   1938    423.    350.    214.     67.      0.      0.    216.    350.    350.    350.    350.    350.
  5C   1939    416.    442.    444.    282.    307.    245.    373.    404.    373.    373.    373.    373.
  5C   1940    420.    350.    388.     67.      0.      0.    322.    432.    350.    350.    350.    350.
  5C   1941    416.    431.     89.      0.      0.      0.     58.    413.    350.    350.    350.    350.
  5C   1942    411.    384.    123.     40.      0.     24.      3.    366.    350.    350.    350.    350.
  5C   1943    430.    389.    157.     67.      0.      0.    150.    432.    350.    350.    350.    350.
  5C   1944    350.    406.    370.    272.     67.    342.    290.    417.    350.    350.    350.    350.
  5C   1945    392.    432.    257.    244.    122.    155.    350.    350.    350.    350.    350.    350.
  5C   1946    357.    380.    124.    215.    240.     98.    340.    424.    350.    350.    350.    350.
  5C   1947    419.    414.    272.    283.    181.    141.    350.    350.    434.    350.    350.    350.
  5C   1948    350.    402.    375.    331.    305.    206.     86.    362.    350.    350.    350.    350.
  5C   1949    407.    420.    269.    176.     80.     69.    350.    431.    350.    350.    350.    350.
  5C   1950    350.    397.    372.    178.     72.    165.    356.    433.    350.    350.    350.    372.
  5C   1951    371.    109.      0.      0.      0.    121.    283.    405.    350.    350.    350.    350.
  5C   1952    385.    420.    141.      0.     98.      0.    184.    350.    350.    350.    350.    350.
  5C   1953    350.    380.    209.     80.    342.    281.    107.    412.    426.    350.    350.    350.
  5C   1954    350.    382.    404.    237.    164.    194.    126.    434.    350.    350.    350.    350.
  5C   1955    350.    420.    121.     68.    312.    349.    112.    432.    350.    350.    350.    432.
  5C   1956    350.    391.     67.      0.    165.    350.    142.    398.    350.    350.    350.    417.
  5C   1957    389.    350.    432.    335.    264.    137.    170.    239.    350.    350.    350.    350.
  5C   1958    384.    350.    314.     68.      0.      0.      0.    416.    350.    350.    350.    350.
  5C   1959    350.    350.    413.    280.    117.    431.    413.    350.    350.    350.    350.    361.
  5C   1960    350.    350.    393.    310.    204.    242.    301.    350.    350.    350.    350.    350.
  5C   1961    350.    392.    355.    142.    373.    189.    334.    350.    350.    350.    350.    350.
  5C   1962    350.    350.    375.    268.     16.     99.    409.    430.    350.    350.    350.    350.
  5C   1963    310.    359.     81.     68.      0.      0.      0.    426.    350.    350.    350.    350.
  5C   1964    377.    184.    101.     67.    350.    385.    350.    350.    417.    350.    350.    350.
  5C   1965    376.    371.     67.      0.    403.    241.    142.    350.    350.    350.    431.    350.
  5C   1966    350.    382.    108.     77.    147.    348.    432.    434.    350.    350.    350.    350.
  5C   1967    350.    256.     67.      0.     59.      0.      0.    350.    423.    350.    350.    350.
  5C   1968    432.    384.    387.    180.     73.     68.    427.    350.    350.    350.    350.    350.
  5C   1969    431.    402.    100.      0.      0.    173.    247.    350.    350.    350.    350.    350.
  5C   1970    407.    407.    251.      0.     34.    198.    338.    350.    350.    350.    350.    350.
  5C   1971    418.    128.     67.     18.    423.     82.    345.    395.    350.    350.    350.    350.
  5C   1972    350.    408.    238.    264.    205.    350.    331.    350.    350.    350.    350.    423.
  5C   1973    372.    246.     94.      0.      0.     18.    350.    350.    350.    350.    350.    350.
  5C   1974    363.    266.    111.     68.    373.      0.    173.    350.    434.    417.    350.    350.
  5C   1975    405.    419.    334.    344.     68.     68.    313.    350.    350.    350.    350.    350.
  5C   1976    407.    373.    373.    373.    428.    425.    426.    373.    373.    373.    447.    373.
  5C   1977    373.    440.    442.    413.    364.    392.    373.    374.    373.    373.    373.    450.
  5C   1978    350.    373.    254.     67.      0.      0.     41.    350.    350.    350.    350.    434.
  5C   1979    350.    350.    418.    188.     67.     16.    300.    350.    350.    350.    350.    350.
  5C   1980    382.    380.    241.     67.      0.    253.    231.    426.    350.    417.    350.    350.
  5C   1981    350.    350.    370.    214.    388.    103.    323.    350.    350.    350.    350.    350.
  5C   1982    350.    155.     67.      0.      0.      0.    130.    350.    350.    350.    350.    374.
  5C   1983    426.    110.     68.      0.      0.      0.    139.    413.    350.    350.    430.    417.
  5C   1984    421.    171.      0.    174.    250.    224.    274.    350.    350.    350.    350.    350.
  5C   1985    358.    131.    112.    133.    222.     88.    350.    350.    350.    350.    350.    429.
  5C   1986    418.    245.    216.     68.      0.      0.    173.    350.    350.    350.    350.    398.
  5C   1987    373.    373.    434.    341.    247.    232.    373.    373.    373.    373.    373.    373.
  5C   1988    443.    373.    209.    133.    440.    454.    351.    446.    373.    373.    373.    373.
  5C   1989    373.    384.    353.    308.    271.    133.    359.    373.    373.    373.    373.    377.
  5C   1990    411.    328.    308.    157.    133.    343.    401.    284.    373.    373.    373.    373.
  5C   1991    373.    373.    412.    373.    325.     27.    428.    373.    373.    373.    373.    373.
  5C   1992    450.    453.    330.    273.     97.      0.    316.    373.    373.    373.    373.    373.
  5C   1993    396.    350.    144.      0.      0.      0.    354.    389.    415.    350.    350.    350.
  5C   1994    373.    442.    322.    255.    133.    373.    331.    430.    373.    373.    373.    373.
  5C   1995    411.    426.    246.      0.    130.      0.    168.    406.    432.    350.    350.    350.
  5C   1996    350.    350.    110.     41.      0.      0.    195.    257.    350.    350.    350.    350.
  5C   1997    375.    373.     68.      0.    434.    350.    433.    432.    350.    350.    350.    350.
  5C   1998    424.    352.    151.      0.      0.      0.     96.     92.    350.    350.    350.    350.
  5C   1999    406.    232.    228.    116.      0.    145.    321.    350.    350.    350.    350.    350.
  5C   2000    350.    396.    350.    170.     23.    324.    262.    410.    350.    350.    350.    350.
  5C   2001    357.    234.    180.     68.     36.    102.    142.    350.    350.    350.    350.    350.
  5C   2002    433.    362.    245.    101.    235.    160.    331.    414.    350.    350.    350.    350.
  5C   2003    350.    358.    269.    232.    212.    166.    153.    428.    350.    350.    428.    350.
  5C   2004    350.    372.    124.     71.     40.    338.    350.    350.    350.    350.    350.    350.
  5C   2005    411.    271.    113.     24.      0.      0.    174.    400.    426.    350.    350.    350.
  5C   2006    350.    427.    129.     67.    144.      0.      0.    425.    350.    350.    350.    350.
  5C   2007    350.    409.    404.    350.    216.    431.    363.    350.    350.    350.    350.    350.
  5C   2008    446.    436.    373.    278.    300.    373.    373.    373.    373.    373.    373.    373.
  5C   2009    423.    391.    368.    302.    193.    379.    316.    413.    350.    350.    350.    350.
  5C   2010    350.    350.    253.    102.     68.    130.     72.    434.    350.    350.    350.    350.
  5C   2011    396.    350.    114.     68.     33.      0.    349.    410.    432.    350.    350.    350.
  5C   2012    433.    418.    350.    355.    404.    234.    187.    350.    350.    350.    350.    350.
  5C   2013    417.    278.     67.    105.    350.    352.    398.    350.    350.    350.    350.    428.
  5C   2014    373.    427.    455.    373.    343.    316.    364.    373.    373.    373.    373.    373.
  6CT1 4  TOTAL HISTORIC CU OF SEEPAGE
  6CT2     LISBON DISTRICT                                     1  307  35        
  6C   1922    436.    454.    273.     54.      0.    156.    444.    516.    436.    436.    436.    436.
  6C   1923    457.    428.     54.      0.    354.    436.    240.    436.    436.    436.    436.    518.
  6C   1924    526.    520.    505.    337.    367.    460.    524.    444.    444.    444.    444.    444.
  6C   1925    436.    464.    243.    103.     54.      0.    107.    453.    436.    436.    436.    436.
  6C   1926    436.    449.    471.    197.     54.    436.     90.    523.    436.    436.    436.    436.
  6C   1927    436.    173.    127.     54.      0.    319.    172.    521.    512.    436.    436.    436.
  6C   1928    449.    458.    304.     66.     72.     45.    351.    523.    436.    436.    436.    436.
  6C   1929    444.    502.    387.    391.    315.    432.    444.    444.    502.    444.    444.    444.
  6C   1930    436.    436.    442.    103.     70.     41.    375.    436.    436.    436.    436.    436.
  6C   1931    513.    503.    444.    360.    445.    506.    444.    508.    444.    444.    444.    444.
  6C   1932    436.    467.     54.     54.     69.     84.    436.    436.    436.    436.    436.    436.
  6C   1933    444.    527.    447.    313.    494.    344.    444.    519.    444.    444.    444.    444.
  6C   1934    513.    444.    330.    341.    119.    444.    444.    444.    524.    444.    444.    444.
  6C   1935    503.    508.    306.     54.    335.      0.      0.    436.    436.    436.    436.    436.
  6C   1936    484.    483.    457.    231.      0.    340.    191.    511.    509.    436.    436.    523.
  6C   1937    523.    436.    463.    287.     54.      0.    436.    436.    436.    436.    436.    436.
  6C   1938    495.    486.     55.     54.      0.      0.    233.    517.    436.    436.    436.    436.
  6C   1939    510.    517.    496.    440.    474.    404.    444.    444.    444.    444.    444.    444.
  6C   1940    436.    436.    486.    118.      0.      0.    342.    504.    436.    436.    436.    436.
  6C   1941    503.    479.     54.      0.      0.      0.     40.    435.    436.    436.    436.    436.
  6C   1942    477.    467.     87.     49.      0.     86.     30.    502.    436.    436.    436.    436.
  6C   1943    506.    452.    375.     20.    118.     48.    165.    524.    436.    436.    436.    436.
  6C   1944    436.    485.    462.    266.     54.    432.    200.    487.    502.    436.    436.    436.
  6C   1945    476.    467.    337.    143.     54.     24.    436.    506.    436.    436.    436.    436.
  6C   1946    485.    450.     59.    108.    298.    210.    147.    516.    436.    436.    436.    436.
  6C   1947    510.    507.    366.    315.    172.    110.    436.    512.    514.    436.    436.    436.
  6C   1948    512.    487.    451.    431.    436.    244.    172.    490.    510.    436.    436.    518.
  6C   1949    472.    523.    397.    164.    271.     54.    436.    517.    436.    436.    436.    436.
  6C   1950    436.    479.    450.    279.     54.    299.    406.    436.    436.    436.    436.    436.
  6C   1951    436.    312.     54.     54.    205.    343.    348.    502.    436.    436.    436.    436.
  6C   1952    457.    436.    127.      0.    239.      0.    257.    436.    436.    436.    436.    436.
  6C   1953    436.    457.     81.     30.    436.    128.    185.    518.    512.    436.    436.    436.
  6C   1954    436.    446.    436.    246.     74.     54.    143.    436.    436.    436.    436.    436.
  6C   1955    436.    484.    168.     54.    330.    516.    124.    504.    436.    436.    436.    489.
  6C   1956    514.    477.     11.      0.      0.    436.    322.    509.    436.    436.    436.    511.
  6C   1957    469.    436.    436.    389.    215.    208.    302.    333.    436.    436.    436.    506.
  6C   1958    466.    515.    379.     54.      0.      0.     42.    497.    436.    436.    436.    436.
  6C   1959    520.    436.    492.    277.     54.    524.    520.    436.    436.    436.    436.    443.
  6C   1960    436.    436.    462.    372.    225.    360.    366.    509.    436.    436.    436.    436.
  6C   1961    436.    446.    343.     66.    239.    146.    444.    436.    436.    436.    436.    436.
  6C   1962    436.    510.    412.    269.     30.     77.    436.    436.    436.    436.    436.    436.
  6C   1963     58.    277.     54.      0.      0.      0.      0.    500.    436.    436.    436.    436.
  6C   1964    475.    303.    206.     54.    436.    493.    524.    436.    513.    436.    436.    436.
  6C   1965    449.    420.     93.      0.    509.    402.    139.    436.    436.    436.    510.    436.
  6C   1966    436.    458.    214.     55.     63.    436.    509.    436.    436.    436.    436.    436.
  6C   1967    436.    296.     54.      0.    303.      0.      0.    436.    488.    436.    436.    436.
  6C   1968    523.    480.    487.    181.     54.    106.    436.    522.    436.    436.    436.    436.
  6C   1969    509.    512.    233.      0.      0.    203.    322.    436.    436.    436.    436.    436.
  6C   1970    491.    508.    229.      0.    162.    330.    436.    436.    515.    436.    436.    436.
  6C   1971    489.    118.     54.      0.    436.    312.    461.    471.    436.    436.    436.    436.
  6C   1972    436.    486.    413.    265.    223.    436.    489.    521.    523.    436.    436.    493.
  6C   1973    503.     94.     54.      0.      0.     12.    436.    436.    436.    436.    436.    436.
  6C   1974    459.    204.     54.      0.    478.      0.    337.    436.    522.    504.    436.    436.
  6C   1975    495.    482.    322.    318.     54.      0.    437.    436.    436.    436.    436.    436.
  6C   1976    444.    444.    527.    527.    516.    494.    494.    444.    444.    444.    521.    444.
  6C   1977    444.    519.    496.    426.    455.    357.    444.    481.    444.    444.    444.    512.
  6C   1978    436.    497.    194.      0.      0.      0.     90.    436.    436.    436.    436.    436.
  6C   1979    436.    481.    492.     54.     27.      0.    287.    436.    436.    436.    436.    436.
  6C   1980    438.    444.    109.      0.      0.    184.    248.    523.    436.    436.    436.    436.
  6C   1981    436.    436.    473.     54.    496.     54.    489.    436.    436.    436.    436.    520.
  6C   1982    441.    192.     88.      0.      0.      0.      0.    436.    436.    436.    436.    436.
  6C   1983    470.     68.     54.      0.      0.      0.    145.    517.    436.    436.    436.    512.
  6C   1984    513.    249.      0.    218.     95.    484.    518.    436.    436.    436.    436.    436.
  6C   1985    474.    191.     87.    102.     79.      5.    491.    436.    436.    436.    436.    518.
  6C   1986    511.    403.     96.     41.      0.      0.    348.    436.    436.    436.    436.    500.
  6C   1987    444.    444.    485.    387.    356.    252.    444.    444.    444.    444.    444.    444.
  6C   1988    512.    446.    147.     87.    509.    444.    409.    500.    504.    444.    444.    444.
  6C   1989    444.    475.    398.    382.    441.     55.    417.    444.    444.    444.    444.    444.
  6C   1990    486.    378.    365.    135.     58.    478.    434.    452.    444.    444.    444.    444.
  6C   1991    444.    444.    484.    444.    427.      0.    443.    444.    444.    444.    444.    444.
  6C   1992    521.    444.    449.    364.      0.      0.    458.    444.    444.    444.    444.    444.
  6C   1993    449.    436.    140.      0.      0.     59.    367.    499.    458.    436.    436.    436.
  6C   1994    444.    450.    364.    264.    119.    444.    463.    488.    444.    444.    444.    444.
  6C   1995    505.    353.    116.      0.    304.      0.    316.    377.    500.    436.    436.    436.
  6C   1996    436.    436.    172.     47.      0.     45.    126.    310.    436.    436.    436.    436.
  6C   1997    470.    463.     54.      0.    523.    510.    436.    520.    436.    436.    436.    436.
  6C   1998    512.    349.    141.      0.      0.     93.    140.    195.    436.    436.    436.    511.
  6C   1999    502.    433.    295.     73.     22.     97.    230.    436.    436.    436.    436.    436.
  6C   2000    436.    464.    436.    250.      0.    218.    209.    497.    436.    436.    436.    436.
  6C   2001    524.    498.    423.    217.     48.     75.    263.    436.    436.    436.    436.    523.
  6C   2002    517.    480.     54.      0.    405.    115.    419.    503.    436.    436.    436.    436.
  6C   2003    436.    494.     54.      0.     61.      8.     64.    498.    436.    436.    516.    436.
  6C   2004    436.    474.    163.     54.      0.    505.    420.    436.    436.    436.    436.    436.
  6C   2005    515.    399.     54.      0.      0.      0.    290.    496.    518.    436.    436.    436.
  6C   2006    436.    464.     54.      0.      0.      0.      0.    522.    436.    436.    436.    436.
  6C   2007    436.    441.    421.    428.    228.    436.    227.    517.    436.    436.    436.    436.
  6C   2008    487.    508.    408.    119.    119.    444.    420.    444.    444.    444.    444.    444.
  6C   2009    505.    438.    347.    259.     54.    200.    388.    374.    436.    436.    436.    436.
  6C   2010    510.    521.    436.     54.     30.    231.    119.    514.    436.    436.    436.    436.
  6C   2011    494.    436.     91.     67.     38.      0.    436.    491.    456.    436.    505.    436.
  6C   2012    481.    481.    520.    399.    511.    216.    142.    436.    436.    436.    436.    436.
  6C   2013    500.    461.     99.    272.    436.    484.    507.    436.    436.    436.    436.    504.
  6C   2014    444.    512.    527.    444.    384.    365.    287.    444.    444.    444.    444.    444.
  7CT1 4  TOTAL HISTORIC CU OF SEEPAGE
  7CT2     ANDRUS ISLAND (LOWER)                               1  317  31        
  7C   1922    210.    210.    148.      0.      0.     75.    171.    210.    210.    210.    210.    210.
  7C   1923    210.    246.      0.      0.    198.    210.     68.    210.    210.    210.    210.    210.
  7C   1924    213.    213.    282.    270.    245.    271.    213.    213.    213.    213.    213.    213.
  7C   1925    268.    210.     38.      5.      0.    102.     98.    238.    210.    210.    210.    210.
  7C   1926    210.    210.    275.    216.      0.    210.     74.    210.    210.    210.    210.    210.
  7C   1927    210.    210.    193.     50.      0.    108.    115.    210.    210.    210.    210.    210.
  7C   1928    260.    242.     41.     69.      0.      0.    126.    210.    210.    210.    210.    210.
  7C   1929    213.    228.    184.     56.    196.    206.    213.    213.    213.    213.    213.    213.
  7C   1930    210.    210.    252.    126.      0.     30.    198.    210.    210.    210.    210.    210.
  7C   1931    275.    269.    213.    201.    116.    193.    213.    213.    213.    213.    213.    213.
  7C   1932    210.    262.      8.      0.      0.    210.    210.    210.    210.    210.    210.    210.
  7C   1933    213.    213.    246.    102.    196.     94.    213.    213.    213.    213.    213.    213.
  7C   1934    213.    213.    213.    268.      0.    213.    213.    213.    213.    213.    213.    213.
  7C   1935    210.    225.    210.      0.    138.     12.      7.    210.    210.    210.    210.    210.
  7C   1936    210.    210.    251.      1.      0.     83.     67.    210.    210.    210.    210.    210.
  7C   1937    210.    210.    229.    111.      0.      0.    210.    210.    210.    210.    210.    210.
  7C   1938    210.    254.      5.      0.      0.      0.     79.    210.    210.    210.    210.    210.
  7C   1939    213.    213.    213.    259.    256.    173.    213.    213.    213.    213.    213.    213.
  7C   1940    210.    210.    210.      0.      0.      0.    104.    210.    210.    210.    210.    210.
  7C   1941    210.    210.     10.      0.      0.     34.     80.    210.    210.    210.    210.    210.
  7C   1942    210.    210.    189.      0.      0.    122.      0.    210.    210.    210.    210.    210.
  7C   1943    210.    238.    253.     12.      0.     37.    108.    210.    210.    210.    210.    210.
  7C   1944    210.    210.    273.    257.     11.    210.    154.    210.    210.    210.    210.    210.
  7C   1945    210.    231.    152.      5.     30.     31.    210.    210.    210.    210.    210.    210.
  7C   1946    268.    210.      5.     48.    125.    136.    210.    210.    210.    210.    210.    210.
  7C   1947    210.    244.    207.    208.    255.    112.    210.    210.    210.    210.    210.    210.
  7C   1948    256.    210.    210.    210.    210.    146.    115.    273.    210.    210.    210.    210.
  7C   1949    210.    210.    232.    204.    262.     27.    210.    210.    210.    210.    210.    210.
  7C   1950    210.    210.    272.    204.     63.    122.    210.    210.    210.    210.    210.    210.
  7C   1951    210.    217.      0.      0.      0.     85.    163.    210.    210.    210.    210.    210.
  7C   1952    210.    240.      1.      0.     13.     17.     92.    210.    210.    210.    210.    210.
  7C   1953    210.    259.      3.      0.    210.    210.    121.    210.    210.    210.    210.    210.
  7C   1954    210.    210.    210.    259.    263.    244.    106.    210.    210.    210.    210.    210.
  7C   1955    210.    274.    230.     39.    162.    210.    165.    210.    210.    210.    210.    210.
  7C   1956    210.    210.     15.      0.    209.    210.    204.    210.    210.    210.    210.    210.
  7C   1957    210.    210.    210.    210.    230.    144.    147.     99.    210.    210.    210.    210.
  7C   1958    210.    210.    251.      0.      0.      0.      0.    210.    210.    210.    210.    210.
  7C   1959    210.    210.    210.    224.    149.    210.    210.    210.    210.    210.    210.    260.
  7C   1960    210.    210.    210.    246.    232.    191.    208.    210.    210.    210.    210.    210.
  7C   1961    210.    223.    208.     97.    208.    129.    163.    210.    210.    210.    210.    210.
  7C   1962    210.    245.    209.    207.      0.     58.    210.    210.    210.    210.    210.    210.
  7C   1963    205.    210.      5.      0.     38.     31.     13.    210.    210.    210.    210.    210.
  7C   1964    210.    228.    184.     42.    210.    210.    210.    210.    210.    210.    210.    210.
  7C   1965    210.    262.     10.      0.    210.    210.    107.    210.    210.    210.    210.    210.
  7C   1966    210.    231.     20.      0.      7.    210.    210.    210.    210.    210.    210.    210.
  7C   1967    210.    207.     28.      0.    125.      0.      0.    210.    210.    210.    210.    210.
  7C   1968    210.    210.    210.    180.     53.     71.    210.    210.    210.    210.    210.    210.
  7C   1969    210.    210.    263.      0.      0.    167.    116.    210.    210.    210.    210.    210.
  7C   1970    275.    210.      6.      0.      0.    210.    210.    210.    210.    210.    210.    210.
  7C   1971    210.    205.      5.      0.    210.    181.    210.    210.    210.    210.    210.    210.
  7C   1972    210.    210.    207.    199.    197.    210.    210.    210.    210.    210.    210.    210.
  7C   1973    236.      5.      0.      0.      0.     53.    210.    210.    210.    210.    210.    210.
  7C   1974    271.    184.     35.      0.    208.      0.    121.    210.    210.    210.    210.    210.
  7C   1975    210.    210.    259.    207.      1.      6.    147.    210.    210.    210.    210.    210.
  7C   1976    228.    213.    213.    213.    263.    213.    213.    213.    213.    213.    213.    213.
  7C   1977    213.    213.    281.    278.    213.    273.    213.    281.    213.    213.    213.    213.
  7C   1978    210.    258.    219.      0.      0.      0.    122.    210.    210.    210.    210.    210.
  7C   1979    210.    261.    210.     55.      0.     31.    133.    210.    210.    210.    210.    210.
  7C   1980    262.    210.     14.      0.      0.    158.    165.    210.    210.    210.    210.    210.
  7C   1981    210.    210.    210.    218.    208.     62.    210.    210.    210.    210.    210.    210.
  7C   1982    210.    199.     34.      0.     17.      0.    108.    210.    210.    210.    210.    210.
  7C   1983    210.    171.     57.      0.      0.      0.    106.    210.    210.    210.    210.    210.
  7C   1984    210.    230.     15.    170.      1.    210.    210.    210.    210.    210.    210.    210.
  7C   1985    210.    232.      5.      1.     21.     34.    210.    210.    210.    210.    210.    210.
  7C   1986    210.    228.    256.     48.      0.     22.    210.    210.    210.    210.    210.    210.
  7C   1987    213.    213.    279.    259.    224.    153.    213.    213.    213.    213.    213.    213.
  7C   1988    213.    264.    227.     26.    213.    213.    213.    213.    213.    213.    213.    213.
  7C   1989    213.    259.    269.    212.    264.    227.    213.    213.    213.    213.    213.    254.
  7C   1990    274.    280.    210.    134.     58.    213.    213.    262.    213.    213.    213.    213.
  7C   1991    213.    213.    213.    213.    276.    215.    213.    276.    218.    213.    213.    213.
  7C   1992    273.    213.    213.    213.     73.     35.    198.    213.    213.    213.    213.    213.
  7C   1993    274.    210.      5.      0.      0.     41.    188.    210.    210.    210.    210.    210.
  7C   1994    213.    259.    267.    229.     14.    213.    213.    280.    213.    213.    213.    213.
  7C   1995    210.    222.     79.      0.    176.      0.    157.    143.    210.    210.    210.    210.
  7C   1996    210.    210.    207.      0.      0.    110.    101.    210.    210.    210.    210.    210.
  7C   1997    210.    258.      6.      0.    210.    210.    210.    210.    210.    210.    210.    210.
  7C   1998    210.    235.    205.      0.      0.     59.     67.    122.    210.    210.    210.    210.
  7C   1999    210.    264.    208.    158.      6.      0.    154.    210.    210.    210.    210.    210.
  7C   2000    210.    210.    210.    270.    257.    210.    210.    210.    210.    210.    210.    210.
  7C   2001    260.    210.    210.    257.     50.    124.     67.    210.    210.    210.    210.    210.
  7C   2002    210.    265.    232.    113.     65.    125.    210.    210.    210.    210.    210.    210.
  7C   2003    210.    270.      3.      0.     38.    123.    125.    210.    210.    210.    210.    210.
  7C   2004    210.    275.    230.     64.      0.    210.    210.    210.    210.    210.    210.    210.
  7C   2005    257.    274.     26.      0.      0.      0.     91.    210.    210.    210.    210.    210.
  7C   2006    210.    210.    235.    207.    198.     26.     40.    210.    210.    210.    210.    210.
  7C   2007    210.    210.    265.    210.    221.    210.    210.    210.    210.    210.    210.    210.
  7C   2008    213.    213.    213.    271.    273.    213.    213.    213.    213.    213.    213.    213.
  7C   2009    210.    210.    210.    207.    142.    140.    151.    210.    210.    210.    210.    210.
  7C   2010    249.    210.    267.     20.      0.    116.    110.    210.    210.    210.    210.    210.
  7C   2011    210.    262.      7.      2.      0.      0.    210.    210.    210.    210.    210.    210.
  7C   2012    210.    210.    210.    265.    210.    132.    118.    210.    210.    210.    210.    210.
  7C   2013    210.    235.     17.    122.    210.    210.    210.    210.    210.    210.    210.    210.
  7C   2014    213.    273.    213.    213.    212.    213.    213.    213.    213.    213.    213.    213.
  8CT1 4  TOTAL HISTORIC CU OF SEEPAGE
  8CT2     SHERMAN ISLAND                                      1  341  28        
  8C   1922    743.    707.    531.     77.      0.    344.    686.    730.    772.    775.    775.    775.
  8C   1923    769.    765.     77.     76.    643.    775.    309.    775.    767.    775.    775.    730.
  8C   1924    697.    682.    707.    654.    640.    655.    708.    716.    719.    719.    719.    718.
  8C   1925    779.    735.    487.    120.      8.    428.    306.    731.    770.    775.    775.    775.
  8C   1926    756.    761.    709.    563.     77.    757.    276.    774.    775.    775.    775.    775.
  8C   1927    714.    710.    682.    121.      0.    459.    292.    758.    721.    775.    775.    775.
  8C   1928    729.    709.    266.    193.    114.      0.    549.    745.    775.    775.    775.    775.
  8C   1929    710.    710.    578.    433.    596.    612.    674.    719.    726.    719.    719.    719.
  8C   1930    763.    775.    801.    459.     77.     43.    717.    768.    775.    775.    775.    762.
  8C   1931    689.    668.    704.    586.    537.    616.    714.    718.    682.    719.    719.    719.
  8C   1932    732.    747.     77.     70.      0.    708.    776.    738.    775.    775.    775.    775.
  8C   1933    719.    680.    684.    249.    711.    547.    719.    741.    719.    719.    719.    719.
  8C   1934    727.    719.    602.    637.    189.    710.    677.    683.    681.    719.    719.    707.
  8C   1935    726.    764.    616.     77.    486.      0.     46.    774.    775.    775.    775.    775.
  8C   1936    728.    782.    636.    165.      0.    350.    371.    771.    788.    773.    775.    740.
  8C   1937    710.    768.    738.    376.     70.      0.    738.    775.    763.    775.    775.    775.
  8C   1938    786.    713.    195.     77.      0.      0.    426.    767.    775.    775.    775.    753.
  8C   1939    736.    662.    719.    683.    672.    682.    700.    681.    719.    719.    719.    711.
  8C   1940    800.    767.    771.     77.      0.      0.    499.    741.    775.    775.    775.    775.
  8C   1941    783.    789.     77.      0.      0.      0.    214.    707.    772.    775.    775.    775.
  8C   1942    765.    753.    622.     77.      0.    310.      0.    799.    775.    775.    775.    769.
  8C   1943    712.    722.    626.     77.    113.      0.    493.    766.    767.    775.    775.    775.
  8C   1944    756.    804.    797.    638.    123.    704.    554.    803.    759.    775.    775.    775.
  8C   1945    743.    694.    637.    204.     77.     26.    767.    743.    771.    775.    775.    775.
  8C   1946    770.    738.    173.    314.    552.    539.    775.    719.    775.    775.    775.    775.
  8C   1947    757.    755.    638.    631.    622.    378.    770.    760.    742.    775.    775.    775.
  8C   1948    724.    792.    708.    685.    690.    610.    283.    782.    737.    775.    775.    775.
  8C   1949    725.    747.    673.    622.    684.    207.    775.    774.    775.    760.    772.    769.
  8C   1950    758.    790.    787.    572.    193.    408.    757.    756.    775.    775.    775.    751.
  8C   1951    710.    659.     77.      0.      0.    356.    655.    706.    773.    775.    771.    761.
  8C   1952    777.    743.    115.      0.    137.      0.    392.    769.    762.    775.    775.    771.
  8C   1953    775.    725.    161.     77.    773.    728.    350.    751.    726.    775.    773.    775.
  8C   1954    774.    761.    770.    672.    662.    590.    523.    754.    768.    775.    770.    775.
  8C   1955    775.    800.    703.    158.    599.    704.    504.    727.    775.    775.    775.    768.
  8C   1956    760.    748.     77.      0.    750.    765.    482.    799.    775.    775.    775.    707.
  8C   1957    759.    770.    747.    803.    703.    542.    568.    399.    775.    775.    775.    754.
  8C   1958    743.    749.    718.     77.      0.      0.      0.    798.    768.    775.    757.    766.
  8C   1959    766.    760.    802.    707.    460.    727.    760.    775.    775.    775.    775.    726.
  8C   1960    775.    775.    748.    687.    628.    687.    750.    737.    775.    770.    775.    775.
  8C   1961    768.    742.    652.    239.    755.    419.    643.    767.    775.    775.    768.    771.
  8C   1962    768.    756.    781.    684.     77.    260.    771.    775.    775.    775.    775.    775.
  8C   1963    656.    699.    113.     63.    137.      0.      0.    718.    775.    775.    775.    759.
  8C   1964    769.    639.    654.    164.    770.    769.    754.    774.    785.    775.    770.    775.
  8C   1965    721.    736.    206.     77.    805.    750.    257.    774.    775.    774.    738.    775.
  8C   1966    772.    779.    183.     77.    169.    754.    745.    748.    775.    759.    775.    774.
  8C   1967    775.    718.    123.      0.    450.      0.      0.    774.    789.    775.    775.    775.
  8C   1968    773.    775.    744.    539.    145.    249.    737.    762.    775.    775.    776.    775.
  8C   1969    756.    797.    676.     77.      0.    595.    527.    775.    774.    775.    775.    775.
  8C   1970    804.    756.    262.      0.     32.    773.    765.    775.    761.    775.    775.    760.
  8C   1971    745.    634.     77.     78.    741.    580.    680.    769.    775.    775.    775.    768.
  8C   1972    771.    796.    684.    669.    624.    774.    778.    771.    749.    775.    775.    721.
  8C   1973    712.    152.     81.      0.      0.     66.    766.    766.    775.    775.    775.    767.
  8C   1974    778.    649.    139.     74.    680.      0.    345.    775.    727.    724.    775.    775.
  8C   1975    760.    725.    726.    652.    192.     38.    598.    775.    775.    751.    766.    775.
  8C   1976    729.    692.    692.    690.    622.    668.    668.    719.    697.    719.    727.    697.
  8C   1977    703.    653.    706.    666.    701.    656.    714.    680.    697.    719.    719.    737.
  8C   1978    763.    736.    671.      0.      0.      0.    322.    774.    775.    775.    775.    755.
  8C   1979    775.    732.    708.    180.     54.    157.    566.    759.    775.    771.    775.    775.
  8C   1980    755.    733.    183.     59.      0.    459.    640.    734.    775.    740.    775.    775.
  8C   1981    767.    762.    732.    665.    721.    268.    748.    767.    775.    775.    775.    714.
  8C   1982    718.    688.    159.      0.    133.      0.    392.    775.    773.    775.    775.    780.
  8C   1983    728.    496.    120.      0.      0.      0.    306.    747.    775.    775.    774.    802.
  8C   1984    742.    737.    137.    605.     78.    764.    715.    775.    769.    775.    774.    775.
  8C   1985    741.    578.    139.    175.    237.     59.    733.    770.    762.    775.    774.    742.
  8C   1986    724.    764.    626.    117.      0.      0.    690.    745.    775.    774.    775.    766.
  8C   1987    717.    703.    698.    740.    656.    630.    700.    717.    719.    719.    719.    719.
  8C   1988    669.    648.    671.    308.    671.    708.    661.    734.    662.    719.    719.    719.
  8C   1989    699.    727.    629.    679.    614.    547.    703.    717.    719.    719.    706.    694.
  8C   1990    682.    667.    682.    556.    234.    634.    710.    685.    719.    719.    719.    718.
  8C   1991    674.    693.    716.    705.    674.    585.    710.    693.    708.    715.    699.    718.
  8C   1992    671.    660.    742.    634.    260.    142.    624.    719.    700.    719.    719.    719.
  8C   1993    711.    756.    137.      0.      0.     60.    628.    772.    729.    775.    775.    775.
  8C   1994    676.    722.    604.    611.    184.    712.    721.    663.    719.    719.    719.    714.
  8C   1995    707.    695.    293.      0.    608.      0.    645.    627.    805.    775.    775.    775.
  8C   1996    775.    773.    523.     77.      0.    177.    419.    736.    775.    775.    775.    775.
  8C   1997    738.    703.    178.      0.    754.    751.    767.    779.    775.    775.    771.    775.
  8C   1998    733.    772.    616.     77.      0.    209.    318.    327.    765.    775.    774.    729.
  8C   1999    802.    753.    600.    281.     77.     16.    544.    758.    774.    775.    775.    772.
  8C   2000    755.    719.    755.    711.    632.    720.    691.    800.    772.    775.    775.    745.
  8C   2001    801.    691.    703.    565.    109.    397.    328.    775.    762.    775.    775.    753.
[...]
141C   1924      1.      1.      1.      1.      1.      1.      1.      1.      1.      1.      1.      1.
141C   1925      1.      1.      0.      0.      0.      1.      1.      1.      1.      1.      1.      1.
141C   1926      1.      1.      1.      0.      0.      1.      1.      1.      1.      1.      1.      1.
141C   1927      1.      0.      0.      0.      0.      1.      1.      1.      1.      1.      1.      1.
141C   1928      1.      1.      0.      0.      1.      0.      1.      1.      1.      1.      1.      1.
141C   1929      1.      1.      0.      1.      1.      1.      1.      1.      1.      1.      1.      1.
141C   1930      1.      1.      1.      0.      0.      1.      1.      1.      1.      1.      1.      1.
141C   1931      1.      1.      1.      0.      1.      1.      1.      1.      1.      1.      1.      1.
141C   1932      1.      1.      0.      0.      0.      1.      1.      1.      1.      1.      1.      1.
141C   1933      1.      1.      1.      0.      1.      1.      1.      1.      1.      1.      1.      1.
141C   1934      1.      1.      0.      1.      0.      1.      1.      1.      1.      1.      1.      1.
141C   1935      1.      1.      0.      0.      1.      0.      1.      1.      1.      1.      1.      1.
141C   1936      1.      1.      1.      0.      0.      1.      1.      1.      1.      1.      1.      1.
141C   1937      1.      1.      1.      0.      0.      0.      1.      1.      1.      1.      1.      1.
141C   1938      1.      1.      0.      0.      0.      0.      1.      1.      1.      1.      1.      1.
141C   1939      1.      1.      1.      1.      1.      1.      1.      1.      1.      1.      1.      1.
141C   1940      1.      1.      1.      0.      0.      0.      1.      1.      1.      1.      1.      1.
141C   1941      1.      1.      0.      0.      0.      0.      1.      1.      1.      1.      1.      1.
141C   1942      1.      1.      0.      0.      0.      1.      1.      1.      1.      1.      1.      1.
141C   1943      1.      1.      0.      0.      0.      0.      1.      1.      1.      1.      1.      1.
141C   1944      1.      1.      1.      1.      0.      1.      1.      1.      1.      1.      1.      1.
141C   1945      1.      1.      0.      0.      0.      0.      1.      1.      1.      1.      1.      1.
141C   1946      1.      1.      0.      0.      1.      1.      1.      1.      1.      1.      1.      1.
141C   1947      1.      1.      0.      0.      1.      1.      1.      1.      1.      1.      1.      1.
141C   1948      1.      1.      1.      1.      1.      1.      1.      1.      1.      1.      1.      1.
141C   1949      1.      1.      1.      0.      1.      0.      1.      1.      1.      1.      1.      1.
141C   1950      1.      1.      1.      0.      0.      1.      1.      1.      1.      1.      1.      1.
141C   1951      1.      1.      0.      0.      0.      1.      1.      1.      1.      1.      1.      1.
141C   1952      1.      1.      0.      0.      0.      0.      1.      1.      1.      1.      1.      1.
141C   1953      1.      1.      0.      0.      1.      1.      1.      1.      1.      1.      1.      1.
141C   1954      1.      1.      1.      0.      0.      1.      1.      1.      1.      1.      1.      1.
141C   1955      1.      1.      0.      0.      1.      1.      1.      1.      1.      1.      1.      1.
141C   1956      1.      1.      0.      0.      1.      1.      1.      1.      1.      1.      1.      1.
141C   1957      1.      1.      1.      1.      0.      1.      1.      1.      1.      1.      1.      1.
141C   1958      1.      1.      1.      0.      0.      0.      1.      1.      1.      1.      1.      1.
141C   1959      1.      1.      1.      1.      0.      1.      1.      1.      1.      1.      1.      1.
141C   1960      1.      1.      1.      1.      1.      1.      1.      1.      1.      1.      1.      1.
141C   1961      1.      0.      0.      0.      1.      1.      1.      1.      1.      1.      1.      1.
141C   1962      1.      1.      1.      1.      0.      1.      1.      1.      1.      1.      1.      1.
141C   1963      1.      1.      0.      0.      0.      0.      0.      1.      1.      1.      1.      1.
141C   1964      1.      1.      1.      0.      1.      1.      1.      1.      1.      1.      1.      1.
141C   1965      1.      1.      0.      0.      1.      1.      1.      1.      1.      1.      1.      1.
141C   1966      1.      0.      0.      0.      1.      1.      1.      1.      1.      1.      1.      1.
141C   1967      1.      0.      0.      0.      1.      0.      0.      1.      1.      1.      1.      1.
141C   1968      1.      1.      1.      0.      0.      1.      1.      1.      1.      1.      1.      1.
141C   1969      1.      1.      0.      0.      0.      1.      1.      1.      1.      1.      1.      1.
141C   1970      1.      1.      0.      0.      0.      1.      1.      1.      1.      1.      1.      1.
141C   1971      1.      0.      0.      0.      1.      1.      1.      1.      1.      1.      1.      1.
141C   1972      1.      1.      1.      0.      1.      1.      1.      1.      1.      1.      1.      1.
141C   1973      1.      0.      0.      0.      0.      0.      1.      1.      1.      1.      1.      1.
141C   1974      1.      0.      0.      0.      1.      0.      1.      1.      1.      1.      1.      1.
141C   1975      1.      1.      1.      1.      0.      0.      1.      1.      1.      1.      1.      1.
141C   1976      1.      1.      1.      1.      1.      1.      1.      1.      1.      1.      1.      1.
141C   1977      1.      1.      1.      1.      1.      1.      1.      1.      1.      1.      1.      1.
141C   1978      1.      1.      0.      0.      0.      0.      1.      1.      1.      1.      1.      1.
141C   1979      1.      1.      1.      0.      0.      1.      1.      1.      1.      1.      1.      1.
141C   1980      1.      1.      0.      0.      0.      1.      1.      1.      1.      1.      1.      1.
141C   1981      1.      1.      1.      0.      0.      0.      1.      1.      1.      1.      1.      1.
141C   1982      1.      1.      0.      0.      1.      0.      1.      1.      1.      1.      1.      1.
141C   1983      1.      0.      0.      0.      0.      0.      0.      1.      1.      1.      1.      1.
141C   1984      1.      0.      0.      0.      0.      1.      1.      1.      1.      1.      1.      1.
141C   1985      1.      0.      0.      0.      1.      1.      1.      1.      1.      1.      1.      1.
141C   1986      1.      1.      0.      0.      0.      0.      1.      1.      1.      1.      1.      1.
141C   1987      1.      1.      1.      1.      1.      1.      1.      1.      1.      1.      1.      1.
141C   1988      1.      1.      0.      0.      1.      1.      1.      1.      1.      1.      1.      1.
141C   1989      1.      1.      0.      0.      0.      0.      1.      1.      1.      1.      1.      1.
141C   1990      1.      1.      1.      0.      1.      1.      1.      1.      1.      1.      1.      1.
141C   1991      1.      1.      1.      1.      1.      0.      1.      1.      1.      1.      1.      1.
141C   1992      1.      1.      1.      1.      0.      0.      1.      1.      1.      1.      1.      1.
141C   1993      1.      1.      0.      0.      0.      0.      1.      1.      1.      1.      1.      1.
141C   1994      1.      1.      0.      0.      0.      1.      1.      1.      1.      1.      1.      1.
141C   1995      1.      0.      0.      0.      1.      0.      1.      1.      1.      1.      1.      1.
141C   1996      1.      1.      0.      0.      0.      0.      1.      1.      1.      1.      1.      1.
141C   1997      1.      1.      0.      0.      1.      1.      1.      1.      1.      1.      1.      1.
141C   1998      1.      0.      0.      0.      0.      0.      1.      0.      1.      1.      1.      1.
141C   1999      1.      1.      1.      0.      0.      0.      1.      1.      1.      1.      1.      1.
141C   2000      1.      1.      1.      0.      0.      1.      1.      1.      1.      1.      1.      1.
141C   2001      1.      1.      0.      0.      0.      1.      1.      1.      1.      1.      1.      1.
141C   2002      1.      1.      0.      0.      1.      0.      1.      1.      1.      1.      1.      1.
141C   2003      1.      1.      0.      0.      0.      1.      1.      1.      1.      1.      1.      1.
141C   2004      1.      1.      0.      0.      0.      1.      1.      1.      1.      1.      1.      1.
141C   2005      1.      0.      0.      0.      0.      0.      1.      1.      1.      1.      1.      1.
141C   2006      1.      1.      0.      0.      0.      0.      0.      1.      1.      1.      1.      1.
141C   2007      1.      1.      0.      1.      0.      1.      1.      1.      1.      1.      1.      1.
141C   2008      1.      1.      1.      0.      0.      1.      1.      1.      1.      1.      1.      1.
141C   2009      1.      1.      1.      1.      1.      1.      1.      1.      1.      1.      1.      1.
141C   2010      1.      1.      1.      0.      0.      1.      1.      1.      1.      1.      1.      1.
141C   2011      1.      1.      0.      0.      0.      1.      1.      1.      1.      1.      1.      1.
141C   2012      1.      1.      1.      1.      1.      1.      1.      1.      1.      1.      1.      1.
141C   2013      1.      0.      0.      1.      1.      1.      1.      1.      1.      1.      1.      1.
141C   2014      1.      1.      1.      1.      1.      1.      1.      1.      1.      1.      1.      1.
142CT1 4  TOTAL HISTORIC CU OF SEEPAGE
142CT2     TAYLOR SLOUGH WATERWAY                              1 7714  14        
142C   1922      1.      1.      1.      1.      0.      1.      1.      1.      1.      1.      1.      1.
142C   1923      1.      1.      1.      0.      1.      1.      1.      1.      1.      1.      1.      1.
142C   1924      1.      1.      1.      1.      1.      1.      1.      1.      1.      1.      1.      1.
142C   1925      1.      1.      1.      1.      1.      1.      1.      1.      1.      1.      1.      1.
142C   1926      1.      1.      1.      1.      1.      1.      1.      1.      1.      1.      1.      1.
142C   1927      1.      1.      1.      1.      0.      1.      1.      1.      1.      1.      1.      1.
142C   1928      1.      1.      1.      1.      1.      1.      1.      1.      1.      1.      1.      1.
142C   1929      1.      1.      1.      1.      1.      1.      1.      1.      1.      1.      1.      1.
142C   1930      1.      1.      1.      1.      1.      1.      1.      1.      1.      1.      1.      1.
142C   1931      1.      1.      1.      1.      1.      1.      1.      1.      1.      1.      1.      1.
142C   1932      1.      1.      1.      0.      0.      1.      1.      1.      1.      1.      1.      1.
142C   1933      1.      1.      1.      1.      1.      1.      1.      1.      1.      1.      1.      1.
142C   1934      1.      1.      1.      1.      1.      1.      1.      1.      1.      1.      1.      1.
142C   1935      1.      1.      1.      1.      1.      0.      1.      1.      1.      1.      1.      1.
142C   1936      1.      1.      1.      1.      0.      1.      1.      1.      1.      1.      1.      1.
142C   1937      1.      1.      1.      1.      0.      0.      1.      1.      1.      1.      1.      1.
142C   1938      1.      1.      1.      1.      0.      0.      1.      1.      1.      1.      1.      1.
142C   1939      1.      1.      1.      1.      1.      1.      1.      1.      1.      1.      1.      1.
142C   1940      1.      1.      1.      0.      0.      1.      1.      1.      1.      1.      1.      1.
142C   1941      1.      1.     50.      0.      0.      0.      1.      1.      1.      1.      1.      1.
142C   1942      1.      1.      1.      0.      0.      1.      1.      1.      1.      1.      1.      1.
142C   1943      1.      1.      1.      0.      0.      0.      1.      1.      1.      1.      1.      1.
142C   1944      1.      1.      1.      1.      1.      1.      1.      1.      1.      1.      1.      1.
142C   1945      1.      1.      1.      1.      1.      1.      1.      1.      1.      1.      1.      1.
142C   1946      1.      1.      1.      1.      1.      1.      1.      1.      1.      1.      1.      1.
142C   1947      1.      1.      1.      1.      1.      1.      1.      1.      1.      1.      1.      1.
142C   1948      1.      1.      1.      1.      1.      1.      1.      1.      1.      1.      1.      1.
142C   1949      1.      1.      1.      1.      1.      1.      1.      1.      1.      1.      1.      1.
142C   1950      1.      1.      1.      1.      1.      1.      1.      1.      1.      1.      1.      1.
142C   1951      1.      1.      1.      0.      0.      1.      1.      1.      1.      1.      1.      1.
142C   1952      1.      1.      1.      0.      1.      0.      1.      1.      1.      1.      1.      1.
142C   1953      1.      1.      1.      0.      1.      1.      1.      1.      1.      1.      1.      1.
142C   1954      1.      1.      1.      1.      1.      1.      1.      1.      1.      1.      1.      1.
142C   1955      1.      1.      1.      1.      1.      1.      1.      1.      1.      1.      1.      1.
142C   1956      1.      1.     44.      0.      1.      1.      1.      1.      1.      1.      1.      1.
142C   1957      1.      1.      1.      1.      1.      1.      1.      1.      1.      1.      1.      1.
142C   1958      1.      1.      1.      1.      0.      0.      1.      1.      1.      1.      1.      1.
142C   1959      1.      1.      1.      1.      1.      1.      1.      1.      1.      1.      1.      1.
142C   1960      1.      1.      1.      1.      1.      1.      1.      1.      1.      1.      1.      1.
142C   1961      1.      1.      1.      0.      1.      1.      1.      1.      1.      1.      1.      1.
142C   1962      1.      1.      1.      1.      0.      1.      1.      1.      1.      1.      1.      1.
142C   1963      1.      1.      1.      0.      0.      0.      0.      1.      1.      1.      1.      1.
142C   1964      1.      1.      1.      1.      1.      1.      1.      1.      1.      1.      1.      1.
142C   1965      1.      1.      1.      0.      1.      1.      1.      1.      1.      1.      1.      1.
142C   1966      1.      1.      1.      1.      1.      1.      1.      1.      1.      1.      1.      1.
142C   1967      1.      1.      1.      0.      1.      0.      0.      1.      1.      1.      1.      1.
142C   1968      1.      1.      1.      1.      1.      1.      1.      1.      1.      1.      1.      1.
142C   1969      1.      1.      1.      0.      0.      1.      1.      1.      1.      1.      1.      1.
142C   1970      1.      1.      1.      0.      0.      1.      1.      1.      1.      1.      1.      1.
142C   1971      1.      1.      1.      1.      1.      1.      1.      1.      1.      1.      1.      1.
142C   1972      1.      1.      1.      1.      1.      1.      1.      1.      1.      1.      1.      1.
142C   1973      1.      1.      1.      0.      0.      0.      1.      1.      1.      1.      1.      1.
142C   1974      1.      1.      1.      1.      1.      1.      1.      1.      1.      1.      1.      1.
142C   1975      1.      1.      1.      1.      1.      1.      1.      1.      1.      1.      1.      1.
142C   1976      1.      1.      1.      1.      1.      1.      1.      1.      1.      1.      1.      1.
142C   1977      1.      1.      1.      1.      1.      1.      1.      1.      1.      1.      1.      1.
142C   1978      1.      1.      1.      0.      0.      0.      1.      1.      1.      1.      1.      1.
142C   1979      1.      1.      1.      1.      1.      1.      1.      1.      1.      1.      1.      1.
142C   1980      1.      1.      1.      1.      0.      1.      1.      1.      1.      1.      1.      1.
142C   1981      1.      1.      1.      1.      1.      1.      1.      1.      1.      1.      1.      1.
142C   1982      1.      1.      1.      0.      1.      0.      1.      1.      1.      1.      1.      1.
142C   1983      1.      1.      0.      0.      0.      0.      0.      1.      1.      1.      1.      1.
142C   1984      1.      1.      0.      1.      0.      1.      1.      1.      1.      1.      1.      1.
142C   1985      1.      1.      1.      1.      1.      1.      1.      1.      1.      1.      1.      1.
142C   1986      1.      1.      1.      1.      0.      0.      1.      1.      1.      1.      1.      1.
142C   1987      1.      1.      1.      1.      1.      1.      1.      1.      1.      1.      1.      1.
142C   1988      1.      1.      1.      1.      1.      1.      1.      1.      1.      1.      1.      1.
142C   1989      1.      1.      1.      1.      1.      1.      1.      1.      1.      1.      1.      1.
142C   1990      1.      1.      1.      1.      1.      1.      1.      1.      1.      1.      1.      1.
142C   1991      1.      1.      1.      1.      1.      1.      1.      1.      1.      1.      1.      1.
142C   1992      1.      1.      1.      1.      0.      0.      1.      1.      1.      1.      1.      1.
142C   1993      1.      1.      1.      0.      0.      0.      1.      1.      1.      1.      1.      1.
142C   1994      1.      1.      1.      1.      1.      1.      1.      1.      1.      1.      1.      1.
142C   1995      1.      1.      1.      0.      1.      0.      1.      1.      1.      1.      1.      1.
142C   1996      1.      1.      1.      0.      0.      0.      1.      1.      1.      1.      1.      1.
142C   1997      1.      1.      1.      0.      1.      1.      1.      1.      1.      1.      1.      1.
142C   1998      1.      1.      1.      0.      0.      1.      1.      0.      1.      1.      1.      1.
142C   1999      1.      1.      1.      1.      0.      0.      1.      1.      1.      1.      1.      1.
142C   2000      1.      1.      1.      1.      0.      1.      1.      1.      1.      1.      1.      1.
142C   2001      1.      1.      1.      1.      0.      1.      1.      1.      1.      1.      1.      1.
142C   2002      1.      1.      0.      0.      1.      1.      1.      1.      1.      1.      1.      1.
142C   2003      1.      1.      0.      0.      0.      1.      1.      1.      1.      1.      1.      1.
142C   2004      1.      1.      1.      1.      0.      1.      1.      1.      1.      1.      1.      1.
142C   2005      1.      1.      0.      0.      0.      1.      1.      1.      1.      1.      1.      1.
142C   2006      1.      1.      1.      0.      0.      0.      0.      1.      1.      1.      1.      1.
142C   2007      1.      1.      1.      1.      1.      1.      1.      1.      1.      1.      1.      1.
142C   2008      1.      1.      1.      0.      0.      1.      1.      1.      1.      1.      1.      1.
142C   2009      1.      1.      1.      1.      1.      1.      1.      1.      1.      1.      1.      1.
142C   2010      1.      1.      1.      1.      0.      1.      1.      1.      1.      1.      1.      1.
142C   2011      1.      1.      1.      1.      1.      1.      1.      1.      1.      1.      1.      1.
142C   2012      1.      1.      1.      1.      1.      1.      1.      1.      1.      1.      1.      1.
142C   2013      1.      1.      1.      1.      1.      1.      1.      1.      1.      1.      1.      1.
142C   2014      1.      1.      1.      1.      1.      1.      1.      1.      1.      1.      1.      1.
